*SPEF "IEEE 1481-1998"
*DESIGN "usb_phy"
*DATE "Thu Feb 11 01:56:40 2016"
*VENDOR "Silicon Perspective, A Cadence Company"
*PROGRAM "Encounter"
*VERSION "10.13-s089_1"
*DESIGN_FLOW "COUPLING C" "PIN_CAP NONE" "NAME_SCOPE LOCAL"
*DIVIDER /
*DELIMITER :
*BUS_DELIMITER []
*T_UNIT 1 NS
*C_UNIT 1 PF
*R_UNIT 1 OHM
*L_UNIT 1 HENRY

*NAME_MAP

*1 DataIn_o_0_
*2 DataIn_o_1_
*3 DataIn_o_2_
*4 DataIn_o_3_
*5 DataIn_o_4_
*6 DataIn_o_5_
*7 DataIn_o_6_
*8 DataIn_o_7_
*9 DataOut_i_0_
*10 DataOut_i_1_
*11 DataOut_i_2_
*12 DataOut_i_3_
*13 DataOut_i_4_
*14 DataOut_i_5_
*15 DataOut_i_6_
*16 DataOut_i_7_
*17 FE_OFCN0_n266
*18 FE_OFCN1_n266
*19 FE_OFCN2_n467
*20 FE_OFCN3_n467
*21 FE_PSN4_n247
*22 FE_PSN5_n247
*23 FE_PSN6_rst
*24 FE_PSN7_rst
*25 FE_PSN8_n243
*26 FE_PSN9_n243
*27 LineState_o_0_
*28 LineState_o_1_
*29 RxActive_o
*30 RxError_o
*31 RxValid_o
*32 TxReady_o
*33 TxValid_i
*34 clk
*35 g1897_u0_o
*36 i_rx_phy_bit_cnt_0_
*37 i_rx_phy_bit_cnt_2_
*38 i_rx_phy_bit_stuff_err_reg_Q
*39 i_rx_phy_byte_err_reg_Q
*40 i_rx_phy_dpll_state_0_
*41 i_rx_phy_dpll_state_1_
*42 i_rx_phy_fs_ce_r1
*43 i_rx_phy_fs_ce_r2
*44 i_rx_phy_fs_state_0_
*45 i_rx_phy_fs_state_2_
*46 i_rx_phy_one_cnt_0_
*47 i_rx_phy_one_cnt_1_
*48 i_rx_phy_one_cnt_2_
*49 i_rx_phy_rx_en
*50 i_rx_phy_rx_valid1
*51 i_rx_phy_rx_valid_r
*52 i_rx_phy_rxd_r
*53 i_rx_phy_rxd_s
*54 i_rx_phy_rxd_s0
*55 i_rx_phy_rxd_s1_reg_Q
*56 i_rx_phy_rxdn_s
*57 i_rx_phy_rxdn_s0
*58 i_rx_phy_rxdn_s_r_reg_Q
*59 i_rx_phy_rxdp_s
*60 i_rx_phy_rxdp_s0
*61 i_rx_phy_rxdp_s_r_reg_Q
*62 i_rx_phy_sd_nrzi
*63 i_rx_phy_sd_r
*64 i_rx_phy_se0_r_reg_Q
*65 i_rx_phy_se0_s
*66 i_rx_phy_shift_en
*67 i_rx_phy_sync_err_reg_Q
*68 i_tx_phy_append_eop
*69 i_tx_phy_append_eop_sync1
*70 i_tx_phy_append_eop_sync2
*71 i_tx_phy_append_eop_sync4
*72 i_tx_phy_bit_cnt_0_
*73 i_tx_phy_bit_cnt_1_
*74 i_tx_phy_bit_cnt_2_
*75 i_tx_phy_data_done
*76 i_tx_phy_hold_reg
*77 i_tx_phy_hold_reg_10
*78 i_tx_phy_hold_reg_4
*79 i_tx_phy_hold_reg_5
*80 i_tx_phy_hold_reg_6
*81 i_tx_phy_hold_reg_7
*82 i_tx_phy_hold_reg_8
*83 i_tx_phy_hold_reg_9
*84 i_tx_phy_hold_reg_d
*85 i_tx_phy_hold_reg_d_12
*86 i_tx_phy_hold_reg_d_14
*87 i_tx_phy_hold_reg_d_17
*88 i_tx_phy_hold_reg_d_reg_1__Q
*89 i_tx_phy_hold_reg_d_reg_3__Q
*90 i_tx_phy_hold_reg_d_reg_5__Q
*91 i_tx_phy_hold_reg_d_reg_6__Q
*92 i_tx_phy_ld_data_reg_Q
*93 i_tx_phy_one_cnt_0_
*94 i_tx_phy_one_cnt_1_
*95 i_tx_phy_one_cnt_2_
*96 i_tx_phy_sd_bs_o
*97 i_tx_phy_sd_nrzi_o
*98 i_tx_phy_sd_raw_o
*99 i_tx_phy_sft_done
*100 i_tx_phy_sft_done_r
*101 i_tx_phy_state_1_
*102 i_tx_phy_state_2_
*103 i_tx_phy_tx_ip
*104 i_tx_phy_txoe_r1
*105 i_tx_phy_txoe_r2
*106 n12
*107 n219
*108 n220
*109 n221
*110 n222
*111 n223
*112 n224
*113 n225
*114 n226
*115 n227
*116 n228
*117 n229
*118 n230
*119 n231
*120 n232
*121 n233
*122 n234
*123 n235
*124 n236
*125 n237
*126 n238
*127 n239
*128 n240
*129 n241
*130 n242
*131 n243
*132 n244
*133 n245
*134 n246
*135 n247
*136 n248
*137 n249
*138 n250
*139 n251
*140 n252
*141 n253
*142 n254
*143 n255
*144 n256
*145 n257
*146 n258
*147 n259
*148 n26
*149 n260
*150 n261
*151 n262
*152 n263
*153 n264
*154 n265
*155 n266
*156 n267
*157 n268
*158 n269
*159 n270
*160 n271
*161 n272
*162 n273
*163 n274
*164 n275
*165 n276
*166 n277
*167 n278
*168 n279
*169 n280
*170 n281
*171 n282
*172 n283
*173 n284
*174 n285
*175 n286
*176 n287
*177 n288
*178 n289
*179 n290
*180 n291
*181 n292
*182 n293
*183 n294
*184 n295
*185 n296
*186 n297
*187 n298
*188 n299
*189 n30
*190 n300
*191 n301
*192 n302
*193 n303
*194 n304
*195 n305
*196 n306
*197 n307
*198 n308
*199 n309
*200 n310
*201 n311
*202 n312
*203 n313
*204 n314
*205 n315
*206 n316
*207 n317
*208 n318
*209 n319
*210 n320
*211 n321
*212 n322
*213 n323
*214 n324
*215 n325
*216 n326
*217 n327
*218 n328
*219 n329
*220 n330
*221 n331
*222 n332
*223 n333
*224 n334
*225 n335
*226 n336
*227 n337
*228 n338
*229 n339
*230 n340
*231 n341
*232 n342
*233 n343
*234 n344
*235 n345
*236 n346
*237 n347
*238 n348
*239 n349
*240 n350
*241 n351
*242 n352
*243 n353
*244 n354
*245 n355
*246 n356
*247 n357
*248 n358
*249 n359
*250 n360
*251 n361
*252 n362
*253 n363
*254 n364
*255 n365
*256 n366
*257 n367
*258 n368
*259 n369
*260 n370
*261 n371
*262 n372
*263 n373
*264 n374
*265 n375
*266 n376
*267 n377
*268 n378
*269 n379
*270 n380
*271 n381
*272 n382
*273 n383
*274 n384
*275 n385
*276 n386
*277 n387
*278 n388
*279 n389
*280 n390
*281 n391
*282 n392
*283 n393
*284 n394
*285 n395
*286 n396
*287 n397
*288 n398
*289 n399
*290 n4
*291 n400
*292 n401
*293 n402
*294 n403
*295 n404
*296 n405
*297 n406
*298 n407
*299 n408
*300 n409
*301 n410
*302 n411
*303 n412
*304 n413
*305 n414
*306 n415
*307 n416
*308 n417
*309 n418
*310 n419
*311 n420
*312 n421
*313 n422
*314 n423
*315 n424
*316 n425
*317 n426
*318 n427
*319 n428
*320 n429
*321 n430
*322 n431
*323 n432
*324 n433
*325 n434
*326 n435
*327 n436
*328 n437
*329 n438
*330 n439
*331 n440
*332 n441
*333 n442
*334 n443
*335 n444
*336 n445
*337 n446
*338 n447
*339 n448
*340 n449
*341 n450
*342 n451
*343 n452
*344 n453
*345 n454
*346 n455
*347 n456
*348 n457
*349 n458
*350 n459
*351 n460
*352 n461
*353 n462
*354 n463
*355 n464
*356 n465
*357 n466
*358 n467
*359 n468
*360 n469
*361 n47
*362 n470
*363 n471
*364 n472
*365 n473
*366 n474
*367 n475
*368 n476
*369 n477
*370 n478
*371 n479
*372 n48
*373 n480
*374 n481
*375 n482
*376 n483
*377 n484
*378 n485
*379 n486
*380 n487
*381 n488
*382 n489
*383 n49
*384 n490
*385 n491
*386 n492
*387 n493
*388 n494
*389 n495
*390 n496
*391 n497
*392 n498
*393 n499
*394 n50
*395 n500
*396 n501
*397 n502
*398 n503
*399 n504
*400 n505
*401 n506
*402 n507
*403 n508
*404 n509
*405 n51
*406 n510
*407 n511
*408 n512
*409 n52
*410 n53
*411 n_166
*412 n_203
*413 n_224
*414 n_229
*415 n_238
*416 n_275
*417 n_276
*418 n_288
*419 n_291
*420 n_306
*421 n_309
*422 n_310
*423 n_316
*424 n_317
*425 n_319
*426 n_320
*427 n_333
*428 n_338
*429 n_353
*430 n_361
*431 n_362
*432 n_364
*433 n_365
*434 n_366
*435 n_367
*436 n_378
*437 n_387
*438 n_388
*439 n_392
*440 n_394
*441 n_395
*442 n_401
*443 n_405
*444 n_406
*445 n_407
*446 n_409
*447 n_414
*448 n_415
*449 n_417
*450 n_427
*451 n_428
*452 n_432
*453 n_436
*454 n_449
*455 n_459
*456 n_499
*457 n_507
*458 n_523
*459 n_758
*460 n_796
*461 n_885
*462 n_925
*463 n_929
*464 n_962
*465 n_976
*466 n_992
*467 phy_tx_mode
*468 rst
*469 rst_cnt_0_
*470 rst_cnt_1_
*471 rst_cnt_3_
*472 rst_cnt_4_
*473 rxd
*474 rxdn
*475 rxdp
*476 txdn
*477 txdp
*478 txoe
*479 usb_rst
*480 FE_PSC9_n243
*481 FE_PSC8_n243
*482 FE_PSC7_rst
*483 FE_PSC6_rst
*484 FE_PSC5_n247
*485 FE_PSC4_n247
*486 FE_OFCC3_n467
*487 FE_OFCC2_n467
*488 FE_OFCC1_n266
*489 FE_OFCC0_n266
*490 i_rx_phy_bit_cnt_reg_0__u0
*491 i_rx_phy_bit_cnt_reg_1__u0
*492 i_rx_phy_bit_cnt_reg_2__u0
*493 i_rx_phy_bit_stuff_err_reg_u0
*494 i_rx_phy_byte_err_reg_u0
*495 i_rx_phy_dpll_state_reg_0__u0
*496 i_rx_phy_dpll_state_reg_1__u0
*497 i_rx_phy_fs_ce_r1_reg_u0
*498 i_rx_phy_fs_ce_r2_reg_u0
*499 i_rx_phy_fs_ce_reg_u0
*500 i_rx_phy_fs_state_reg_0__u0
*501 i_rx_phy_fs_state_reg_1__u0
*502 i_rx_phy_fs_state_reg_2__u0
*503 i_rx_phy_hold_reg_reg_0__u0
*504 i_rx_phy_hold_reg_reg_1__u0
*505 i_rx_phy_hold_reg_reg_2__u0
*506 i_rx_phy_hold_reg_reg_3__u0
*507 i_rx_phy_hold_reg_reg_4__u0
*508 i_rx_phy_hold_reg_reg_5__u0
*509 i_rx_phy_hold_reg_reg_6__u0
*510 i_rx_phy_hold_reg_reg_7__u0
*511 i_rx_phy_one_cnt_reg_0__u0
*512 i_rx_phy_one_cnt_reg_1__u0
*513 i_rx_phy_one_cnt_reg_2__u0
*514 i_rx_phy_rx_active_reg_u0
*515 i_rx_phy_rx_en_reg_u0
*516 i_rx_phy_rx_valid1_reg_u0
*517 i_rx_phy_rx_valid_r_reg_u0
*518 i_rx_phy_rx_valid_reg_u0
*519 i_rx_phy_rxd_r_reg_u0
*520 i_rx_phy_rxd_s0_reg_u0
*521 i_rx_phy_rxd_s1_reg_u0
*522 i_rx_phy_rxd_s_reg_u0
*523 i_rx_phy_rxdn_s0_reg_u0
*524 i_rx_phy_rxdn_s1_reg_u0
*525 i_rx_phy_rxdn_s_r_reg_u0
*526 i_rx_phy_rxdn_s_reg_u0
*527 i_rx_phy_rxdp_s0_reg_u0
*528 i_rx_phy_rxdp_s1_reg_u0
*529 i_rx_phy_rxdp_s_r_reg_u0
*530 i_rx_phy_rxdp_s_reg_u0
*531 i_rx_phy_sd_nrzi_reg_u0
*532 i_rx_phy_sd_r_reg_u0
*533 i_rx_phy_se0_r_reg_u0
*534 i_rx_phy_se0_s_reg_u0
*535 i_rx_phy_shift_en_reg_u0
*536 i_rx_phy_sync_err_reg_u0
*537 i_tx_phy_TxReady_o_reg_u0
*538 i_tx_phy_append_eop_reg_u0
*539 i_tx_phy_append_eop_sync1_reg_u0
*540 i_tx_phy_append_eop_sync2_reg_u0
*541 i_tx_phy_append_eop_sync3_reg_u0
*542 i_tx_phy_append_eop_sync4_reg_u0
*543 i_tx_phy_bit_cnt_reg_0__u0
*544 i_tx_phy_bit_cnt_reg_1__u0
*545 i_tx_phy_bit_cnt_reg_2__u0
*546 i_tx_phy_data_done_reg_u0
*547 i_tx_phy_hold_reg_d_reg_0__u0
*548 i_tx_phy_hold_reg_d_reg_1__u0
*549 i_tx_phy_hold_reg_d_reg_2__u0
*550 i_tx_phy_hold_reg_d_reg_3__u0
*551 i_tx_phy_hold_reg_d_reg_4__u0
*552 i_tx_phy_hold_reg_d_reg_5__u0
*553 i_tx_phy_hold_reg_d_reg_6__u0
*554 i_tx_phy_hold_reg_d_reg_7__u0
*555 i_tx_phy_hold_reg_reg_0__u0
*556 i_tx_phy_hold_reg_reg_1__u0
*557 i_tx_phy_hold_reg_reg_2__u0
*558 i_tx_phy_hold_reg_reg_3__u0
*559 i_tx_phy_hold_reg_reg_4__u0
*560 i_tx_phy_hold_reg_reg_5__u0
*561 i_tx_phy_hold_reg_reg_6__u0
*562 i_tx_phy_hold_reg_reg_7__u0
*563 i_tx_phy_ld_data_reg_u0
*564 i_tx_phy_one_cnt_reg_0__u0
*565 i_tx_phy_one_cnt_reg_1__u0
*566 i_tx_phy_one_cnt_reg_2__u0
*567 i_tx_phy_sd_bs_o_reg_u0
*568 i_tx_phy_sd_nrzi_o_reg_u0
*569 i_tx_phy_sd_raw_o_reg_u0
*570 i_tx_phy_sft_done_r_reg_u0
*571 i_tx_phy_sft_done_reg_u0
*572 i_tx_phy_state_reg_0__u0
*573 i_tx_phy_state_reg_1__u0
*574 i_tx_phy_state_reg_2__u0
*575 i_tx_phy_tx_ip_reg_u0
*576 i_tx_phy_tx_ip_sync_reg_u0
*577 i_tx_phy_txdn_reg_u0
*578 i_tx_phy_txdp_reg_u0
*579 i_tx_phy_txoe_r1_reg_u0
*580 i_tx_phy_txoe_r2_reg_u0
*581 i_tx_phy_txoe_reg_u0
*582 rst_cnt_reg_0__u0
*583 rst_cnt_reg_1__u0
*584 rst_cnt_reg_2__u0
*585 rst_cnt_reg_3__u0
*586 rst_cnt_reg_4__u0
*587 usb_rst_reg_u0
*588 U279
*589 U280
*590 U281
*591 U282
*592 U283
*593 U284
*594 U285
*595 U286
*596 U287
*597 U288
*598 U289
*599 U290
*600 U291
*601 U292
*602 U293
*603 U294
*604 U295
*605 U296
*606 U297
*607 U298
*608 U299
*609 U300
*610 U301
*611 U302
*612 U303
*613 U304
*614 U305
*615 U306
*616 U307
*617 U308
*618 U309
*619 U310
*620 U311
*621 U312
*622 U313
*623 U314
*624 U315
*625 U316
*626 U317
*627 U318
*628 U319
*629 U320
*630 U321
*631 U322
*632 U323
*633 U324
*634 U325
*635 U326
*636 U327
*637 U328
*638 U329
*639 U330
*640 U331
*641 U332
*642 U333
*643 U334
*644 U335
*645 U336
*646 U337
*647 U338
*648 U339
*649 U340
*650 U341
*651 U342
*652 U343
*653 U344
*654 U345
*655 U346
*656 U347
*657 U348
*658 U349
*659 U350
*660 U351
*661 U352
*662 U353
*663 U354
*664 U355
*665 U356
*666 U357
*667 U358
*668 U359
*669 U360
*670 U361
*671 U362
*672 U363
*673 U364
*674 U365
*675 U366
*676 U367
*677 U368
*678 U369
*679 U370
*680 U371
*681 U372
*682 U373
*683 U374
*684 U375
*685 U376
*686 U377
*687 U378
*688 U379
*689 U380
*690 U381
*691 U382
*692 U383
*693 U384
*694 U385
*695 U386
*696 U387
*697 U388
*698 U389
*699 U390
*700 U391
*701 U392
*702 U393
*703 U394
*704 U395
*705 U396
*706 U397
*707 U398
*708 U399
*709 U400
*710 U401
*711 U402
*712 U403
*713 U404
*714 U405
*715 U406
*716 U407
*717 U408
*718 U409
*719 U410
*720 U411
*721 U412
*722 U413
*723 U414
*724 U415
*725 U416
*726 U417
*727 U418
*728 U419
*729 U420
*730 U421
*731 U422
*732 U423
*733 U424
*734 U425
*735 U426
*736 U427
*737 U428
*738 U429
*739 U430
*740 U431
*741 U432
*742 U433
*743 U434
*744 U435
*745 U436
*746 U437
*747 U438
*748 U439
*749 U440
*750 U441
*751 U442
*752 U443
*753 U444
*754 U445
*755 U446
*756 U447
*757 U448
*758 U449
*759 U450
*760 U451
*761 U452
*762 U453
*763 U454
*764 U455
*765 U456
*766 U457
*767 U458
*768 U459
*769 U460
*770 U461
*771 U462
*772 U463
*773 U464
*774 U465
*775 U466
*776 U467
*777 U468
*778 U469
*779 U470
*780 U471
*781 U472
*782 U473
*783 U474
*784 U475
*785 U476
*786 U477
*787 U478
*788 U479
*789 U480
*790 U481
*791 U482
*792 U483
*793 U484
*794 U485
*795 U486
*796 U487
*797 U488
*798 U489
*799 U490
*800 U491
*801 U492
*802 U493
*803 U494
*804 U495
*805 U496
*806 U497
*807 U498
*808 U499
*809 U500
*810 U501
*811 U502
*812 U503
*813 U504
*814 U505
*815 U506
*816 U507
*817 U508
*818 U509
*819 U510
*820 U511
*821 U512
*822 U513
*823 U514
*824 U515
*825 U516
*826 U517
*827 U518
*828 U519
*829 U520
*830 U521
*831 U522
*832 U523
*833 U524
*834 U525
*835 U526
*836 U527
*837 U528
*838 U529
*839 U530
*840 U531
*841 U532
*842 U533
*843 U534
*844 U535
*845 U536
*846 U537
*847 U538
*848 U539
*849 U540
*850 U541
*851 U542
*852 U543
*853 U544
*854 U545
*855 U546
*856 U547
*857 U548
*858 U549
*859 U550
*860 U551
*861 U552
*862 U553
*863 U554
*864 U555
*865 U556
*866 U557
*867 U558
*868 U559
*869 U560
*870 U561
*871 U562
*872 U563
*873 U564
*874 U565
*875 U566
*876 U567
*877 U568
*878 U569
*879 U570
*880 U571
*881 U572
*882 U573
*883 U574
*884 U575
*885 U576
*886 U577
*887 U578
*888 U579
*889 U580
*890 U581
*891 U582
*892 U583
*893 U584
*894 U585
*895 U586
*896 U587
*897 U588
*898 U589
*899 U590
*900 U591
*901 U592
*902 U593
*903 U594
*904 U595
*905 U596
*906 U597
*907 U598
*908 U599
*909 U600
*910 U601
*911 U602
*912 U603
*913 U604
*914 U605
*915 U606
*916 U607
*917 U608
*918 U609
*919 U610
*920 U611
*921 U612
*922 U613
*923 U614
*924 U615
*925 U616
*926 U617
*927 U618
*928 U619
*929 U620
*930 U621
*931 U622
*932 U623
*933 U624
*934 U625
*935 U626
*936 U627
*937 U628
*938 U629
*939 U630
*940 U631
*941 U632
*942 U633
*943 U634


*PORTS

*9 I *C 32.83 67.96
*10 I *C 24.15 67.96
*11 I *C 28.63 67.96
*12 I *C 28.35 67.96
*13 I *C 33.81 67.96
*14 I *C 23.87 67.96
*15 I *C 30.73 67.96
*16 I *C 33.11 67.96
*33 I *C 0 45.08
*34 I *C 37.03 67.96
*467 I *C 0 48.58
*468 I *C 32.27 67.96
*473 I *C 69.655 48.58
*474 I *C 69.655 53.62
*475 I *C 52.71 67.96
*1 O *C 54.53 67.96
*2 O *C 54.81 67.96
*3 O *C 48.37 67.96
*4 O *C 50.61 67.96
*5 O *C 54.81 67.96
*6 O *C 54.81 67.96
*7 O *C 54.67 67.96
*8 O *C 69.655 50.54
*27 O *C 69.655 42.14
*28 O *C 69.655 39.76
*29 O *C 40.25 67.96
*30 O *C 69.655 38.78
*31 O *C 69.655 32.62
*32 O *C 23.03 67.96
*35 O *C 69.655 41.3
*476 O *C 14.91 67.96
*477 O *C 0 46.48
*478 O *C 69.655 32.48
*479 O *C 43.47 0


*D_NET *228 5.074e-05

*CONN
*I *900:a I *C 11 37 *L 0.001 *D na02f01
*I *841:o O *C 10 36 *L 0 *D na02m02

*CAP
1 *228:2 2.537e-05
2 *228:3 2.537e-05

*RES
1 *228:3 *900:a 6.7
2 *228:2 *228:3 1.1388
3 *841:o *228:2 6.7
*END

*D_NET *449 0.00021908

*CONN
*I *903:o O *C 35 11 *L 0 *D no02f02
*I *585:d I *C 37 11 *L 0.001 *D ms00f80

*CAP
1 *903:o 0.00010954
2 *585:d 0.00010954

*RES
1 *903:o *585:d 4.28142
*END

*D_NET *278 7.896e-05

*CONN
*I *715:b I *C 41 11 *L 0.001 *D no02s01
*I *652:o O *C 42 11 *L 0 *D in01s02

*CAP
1 *652:o 3.948e-05
2 *715:b 3.948e-05

*RES
1 *715:b *652:o 1.52908
*END

*D_NET *280 0.00020604

*CONN
*I *890:a I *C 37 13 *L 0.002 *D oa12f02
*I *851:o O *C 38 13 *L 0 *D na02m02

*CAP
1 *851:o 8.05e-05
2 *280:2 0.00010302
3 *890:a 2.252e-05

*RES
1 *280:2 *890:a 0.991264
2 *280:2 *851:o 4.99352
*END

*D_NET *202 0.00012452

*CONN
*I *598:a I *C 27 14 *L 0.001 *D in01s01
*I *596:o O *C 26 14 *L 0 *D no03s04

*CAP
1 *596:o 6.226e-05
2 *598:a 6.226e-05

*RES
1 *596:o *598:a 2.44652
*END

*D_NET *448 0.00017236

*CONN
*I *775:o O *C 26 16 *L 0 *D ao12m02
*I *545:d I *C 24 15 *L 0.001 *D ms00f80

*CAP
1 *775:o 8.618e-05
2 *545:d 8.618e-05

*RES
1 *545:d *775:o 3.36397
*END

*D_NET *275 0.00016878

*CONN
*I *686:o O *C 41 16 *L 0 *D in01s01
*I *658:a I *C 42 15 *L 0.003 *D na02m04

*CAP
1 *686:o 5.329e-05
2 *275:2 7.581e-05
3 *275:3 3.11e-05
4 *658:a 8.58e-06

*RES
1 *275:3 *658:a 0.305816
2 *275:3 *275:2 0.991264
3 *686:o *275:2 1.568
*END

*D_NET *292 0.00020072

*CONN
*I *917:b I *C 43 17 *L 0.0015 *D no03f02
*I *844:o O *C 45 16 *L 0 *D no03m02

*CAP
1 *844:o 7.784e-05
2 *292:2 0.00010036
3 *917:b 2.252e-05

*RES
1 *917:b *292:2 0.991264
2 *292:2 *844:o 3.05816
*END

*D_NET *436 0.00040602

*CONN
*I *765:o O *C 14 18 *L 0 *D oa22m03
*I *564:d I *C 19 18 *L 0.001 *D ms00f80

*CAP
1 *765:o 0.00018049
2 *436:2 0.00020301
3 *564:d 2.252e-05

*RES
1 *436:2 *564:d 0.991264
2 *765:o *436:2 12.858
*END

*D_NET *160 0.0002131

*CONN
*I *914:a I *C 25 19 *L 0.0015 *D no03f02
*I *776:o O *C 27 19 *L 0 *D no02f01

*CAP
1 *776:o 4.726e-05
2 *160:2 5.852e-05
3 *160:3 4.24e-05
4 *160:4 4.803e-05
5 *914:a 1.689e-05

*RES
1 *160:4 *914:a 0.743448
2 *160:4 *160:3 1.22326
3 *160:2 *160:3 0.495632
4 *160:2 *776:o 1.83489
*END

*D_NET *145 3.112e-05

*CONN
*I *764:o O *C 18 19 *L 0 *D oa12s04
*I *763:c I *C 17 19 *L 0.002 *D na03m03

*CAP
1 *764:o 1.556e-05
2 *763:c 1.556e-05

*RES
1 *763:c *764:o 0.611631
*END

*D_NET *139 0.00023706

*CONN
*I *860:o O *C 18 21 *L 0 *D na02f08
*I *854:a I *C 16 22 *L 0.003 *D no02s04

*CAP
1 *860:o 8.823e-05
2 *139:2 0.00011075
3 *139:3 3.03e-05
4 *854:a 7.78e-06

*RES
1 *854:a *139:3 0.305816
2 *139:3 *139:2 0.991264
3 *139:2 *860:o 3.15021
*END

*D_NET *187 0.00024004

*CONN
*I *891:a I *C 26 23 *L 0.002 *D oa12f02
*I *714:o O *C 24 23 *L 0 *D no02s04

*CAP
1 *714:o 5.572e-05
2 *187:2 6.698e-05
3 *187:3 3.748e-05
4 *187:4 3.748e-05
5 *187:5 2.682e-05
6 *891:a 1.556e-05

*RES
1 *187:5 *891:a 0.611631
2 *187:5 *187:4 0.495632
3 *187:3 *187:4 0.917447
4 *187:3 *187:2 0.495632
5 *714:o *187:2 2.23159
*END

*D_NET *188 0.00067516

*CONN
*I *891:o O *C 26 23 *L 0 *D oa12f02
*I *828:c I *C 30 23 *L 0.0015 *D no03m02

*CAP
1 *828:c 1.126e-05
2 *188:2 0.00010445
3 *188:3 0.00010445
4 *188:4 0.00015869
5 *188:5 0.00015869
6 *188:6 7.444e-05
7 *891:o 6.318e-05

*RES
1 *891:o *188:6 1.8816
2 *188:6 *188:5 0.495632
3 *188:5 *188:4 3.43434
4 *188:3 *188:4 0.495632
5 *188:3 *188:2 2.61065
6 *828:c *188:2 0.495632
*END

*D_NET *430 0.00015736

*CONN
*I *758:o O *C 14 26 *L 0 *D oa22m02
*I *567:d I *C 13 27 *L 0.001 *D ms00f80

*CAP
1 *758:o 7.868e-05
2 *567:d 7.868e-05

*RES
1 *567:d *758:o 3.05816
*END

*D_NET *425 0.0001614

*CONN
*I *929:o O *C 17 26 *L 0 *D oa12f01
*I *576:d I *C 19 27 *L 0.001 *D ms00f80

*CAP
1 *929:o 8.07e-05
2 *576:d 8.07e-05

*RES
1 *929:o *576:d 3.05816
*END

*D_NET *333 5.134e-05

*CONN
*I *635:o O *C 48 26 *L 0 *D na02s01
*I *633:d I *C 49 27 *L 0.002 *D oa22s02

*CAP
1 *635:o 2.567e-05
2 *633:d 2.567e-05

*RES
1 *635:o *633:d 0.917447
*END

*D_NET *114 7.784e-05

*CONN
*I *670:o O *C 38 29 *L 0 *D na02s03
*I *623:a I *C 39 29 *L 0.001 *D in01s01

*CAP
1 *670:o 3.892e-05
2 *623:a 3.892e-05

*RES
1 *670:o *623:a 1.52908
*END

*D_NET *266 0.000177

*CONN
*I *824:b I *C 41 29 *L 0.002 *D ao12m02
*I *623:o O *C 39 29 *L 0 *D in01s01

*CAP
1 *623:o 6.598e-05
2 *266:2 8.85e-05
3 *824:b 2.252e-05

*RES
1 *824:b *266:2 0.991264
2 *623:o *266:2 4.38518
*END

*D_NET *303 6.284e-05

*CONN
*I *911:c I *C 20 31 *L 0.0015 *D na03f02
*I *867:o O *C 19 31 *L 0 *D oa12f02

*CAP
1 *911:c 3.142e-05
2 *867:o 3.142e-05

*RES
1 *867:o *911:c 1.22326
*END

*D_NET *128 0.00010896

*CONN
*I *943:o O *C 55 31 *L 0 *D no02f01
*I *909:b I *C 56 30 *L 0.0015 *D no02f02

*CAP
1 *943:o 5.448e-05
2 *909:b 5.448e-05

*RES
1 *943:o *909:b 2.14071
*END

*D_NET *427 0.00018892

*CONN
*I *746:o O *C 38 31 *L 0 *D na02m02
*I *581:d I *C 40 32 *L 0.001 *D ms00f80

*CAP
1 *746:o 9.446e-05
2 *581:d 9.446e-05

*RES
1 *746:o *581:d 3.36397
*END

*D_NET *349 0.00012184

*CONN
*I *805:o O *C 49 31 *L 0 *D na03m03
*I *804:b I *C 50 32 *L 0.001 *D na02f01

*CAP
1 *805:o 6.092e-05
2 *804:b 6.092e-05

*RES
1 *805:o *804:b 2.3482
*END

*D_NET *110 0.00038664

*CONN
*I *802:o O *C 53 31 *L 0 *D no02s03
*I *518:d I *C 56 32 *L 0.001 *D ms00f80

*CAP
1 *802:o 0.00019332
2 *518:d 0.00019332

*RES
1 *802:o *518:d 6.03977
*END

*D_NET *158 0.00014124

*CONN
*I *772:o O *C 25 34 *L 0 *D in01s04
*I *771:c I *C 24 34 *L 0.002 *D oa12m02

*CAP
1 *772:o 7.062e-05
2 *771:c 7.062e-05

*RES
1 *771:c *772:o 2.75234
*END

*D_NET *373 0.00012452

*CONN
*I *787:o O *C 40 36 *L 0 *D oa22s04
*I *786:b I *C 41 35 *L 0.001 *D na02f01

*CAP
1 *787:o 6.226e-05
2 *786:b 6.226e-05

*RES
1 *787:o *786:b 2.44652
*END

*D_NET *466 0.00023352

*CONN
*I *786:o O *C 41 36 *L 0 *D na02f01
*I *535:d I *C 43 35 *L 0.001 *D ms00f80

*CAP
1 *786:o 0.00011676
2 *535:d 0.00011676

*RES
1 *786:o *535:d 4.58723
*END

*D_NET *384 0.000405

*CONN
*I *897:a I *C 51 35 *L 0.0015 *D no04f02
*I *613:o O *C 48 36 *L 0 *D in01s02

*CAP
1 *613:o 0.00016328
2 *384:2 0.0001858
3 *384:3 3.922e-05
4 *897:a 1.67e-05

*RES
1 *384:3 *897:a 0.611631
2 *384:3 *384:2 0.991264
3 *613:o *384:2 6.11631
*END

*D_NET *452 0.00025246

*CONN
*I *900:o O *C 10 36 *L 0 *D na02f01
*I *574:d I *C 12 37 *L 0.001 *D ms00f80

*CAP
1 *900:o 0.00010371
2 *452:2 0.00012623
3 *574:d 2.252e-05

*RES
1 *452:2 *574:d 0.991264
2 *900:o *452:2 4.70861
*END

*D_NET *359 0.00019008

*CONN
*I *628:o O *C 46 36 *L 0 *D no02f01
*I *626:b I *C 44 37 *L 0.0015 *D no03m02

*CAP
1 *628:o 7.252e-05
2 *359:2 9.504e-05
3 *626:b 2.252e-05

*RES
1 *626:b *359:2 0.991264
2 *359:2 *628:o 2.75234
*END

*D_NET *400 0.00019754

*CONN
*I *884:b I *C 46 38 *L 0.002 *D ao12f02
*I *865:o O *C 45 38 *L 0 *D oa12f02

*CAP
1 *865:o 7.625e-05
2 *400:2 9.877e-05
3 *884:b 2.252e-05

*RES
1 *884:b *400:2 0.991264
2 *865:o *400:2 2.1952
*END

*D_NET *433 0.00032474

*CONN
*I *928:o O *C 49 41 *L 0 *D oa12f01
*I *531:d I *C 51 41 *L 0.001 *D ms00f80

*CAP
1 *928:o 0.00013985
2 *433:2 0.00016237
3 *531:d 2.252e-05

*RES
1 *433:2 *531:d 0.991264
2 *928:o *433:2 4.90102
*END

*D_NET *157 3.434e-05

*CONN
*I *835:b I *C 29 42 *L 0.0015 *D na02m02
*I *728:o O *C 30 41 *L 0 *D no02s08

*CAP
1 *728:o 1.717e-05
2 *835:b 1.717e-05

*RES
1 *835:b *728:o 0.611631
*END

*D_NET *221 0.00020536

*CONN
*I *908:b I *C 12 42 *L 0.0015 *D no02f02
*I *869:o O *C 10 41 *L 0 *D ao12f02

*CAP
1 *869:o 6.46e-05
2 *221:2 8.712e-05
3 *221:3 3.808e-05
4 *908:b 1.556e-05

*RES
1 *221:3 *908:b 0.611631
2 *221:3 *221:2 0.991264
3 *869:o *221:2 4.36268
*END

*D_NET *319 0.00014672

*CONN
*I *874:c I *C 41 42 *L 0.002 *D oa22f02
*I *630:o O *C 40 41 *L 0 *D na02s01

*CAP
1 *630:o 3.367e-05
2 *319:2 5.619e-05
3 *319:3 3.969e-05
4 *874:c 1.717e-05

*RES
1 *319:3 *874:c 0.611631
2 *319:3 *319:2 0.991264
3 *630:o *319:2 1.78036
*END

*D_NET *166 0.00014668

*CONN
*I *836:o O *C 16 43 *L 0 *D na02s02
*I *725:a I *C 17 43 *L 0.0025 *D no02s03

*CAP
1 *836:o 4.304e-05
2 *166:2 6.556e-05
3 *166:3 3.03e-05
4 *725:a 7.78e-06

*RES
1 *166:3 *725:a 0.305816
2 *166:2 *166:3 0.991264
3 *836:o *166:2 1.2544
*END

*D_NET *153 3.172e-05

*CONN
*I *862:o O *C 24 46 *L 0 *D ao12f02
*I *766:b I *C 24 46 *L 0.0025 *D no02s03

*CAP
1 *862:o 1.586e-05
2 *766:b 1.586e-05

*RES
1 *862:o *766:b 0.611631
*END

*D_NET *455 0.00024152

*CONN
*I *910:o O *C 32 46 *L 0 *D na02f02
*I *572:d I *C 30 46 *L 0.001 *D ms00f80

*CAP
1 *910:o 0.00012076
2 *572:d 0.00012076

*RES
1 *572:d *910:o 4.58723
*END

*D_NET *434 0.0001822

*CONN
*I *752:o O *C 14 46 *L 0 *D na02s03
*I *578:d I *C 13 47 *L 0.001 *D ms00f80

*CAP
1 *752:o 9.11e-05
2 *578:d 9.11e-05

*RES
1 *578:d *752:o 2.90525
*END

*D_NET *238 0.00013956

*CONN
*I *896:b I *C 33 47 *L 0.002 *D ao12f02
*I *721:o O *C 34 46 *L 0 *D no03m03

*CAP
1 *721:o 4.726e-05
2 *238:2 6.978e-05
3 *896:b 2.252e-05

*RES
1 *896:b *238:2 0.991264
2 *238:2 *721:o 1.83489
*END

*D_NET *422 0.00091364

*CONN
*I *796:o O *C 47 48 *L 0 *D in01s04
*I *526:d I *C 39 48 *L 0.001 *D ms00f80

*CAP
1 *796:o 0.00045682
2 *526:d 0.00045682

*RES
1 *526:d *796:o 17.1257
*END

*D_NET *308 0.0001842

*CONN
*I *882:a I *C 15 48 *L 0.002 *D oa22f02
*I *641:o O *C 17 48 *L 0 *D na02s02

*CAP
1 *641:o 6.18e-05
2 *308:2 8.432e-05
3 *308:3 3.03e-05
4 *882:a 7.78e-06

*RES
1 *882:a *308:3 0.305816
2 *308:3 *308:2 0.991264
3 *308:2 *641:o 4.42385
*END

*D_NET *418 0.00015736

*CONN
*I *927:o O *C 14 49 *L 0 *D oa22f01
*I *542:d I *C 12 49 *L 0.001 *D ms00f80

*CAP
1 *927:o 7.868e-05
2 *542:d 7.868e-05

*RES
1 *542:d *927:o 3.05816
*END

*D_NET *58 0.00017124

*CONN
*I *797:b I *C 48 49 *L 0.0025 *D no02s03
*I *525:o O *C 50 49 *L 0 *D ms00f80

*CAP
1 *525:o 8.562e-05
2 *797:b 8.562e-05

*RES
1 *797:b *525:o 3.36397
*END

*D_NET *313 0.00022386

*CONN
*I *798:a I *C 56 49 *L 0.004 *D in01s04
*I *659:o O *C 58 49 *L 0 *D na02s01

*CAP
1 *659:o 0.00011193
2 *798:a 0.00011193

*RES
1 *798:a *659:o 3.9756
*END

*D_NET *421 0.00082464

*CONN
*I *792:o O *C 48 51 *L 0 *D in01s04
*I *530:d I *C 41 51 *L 0.001 *D ms00f80

*CAP
1 *792:o 0.00041232
2 *530:d 0.00041232

*RES
1 *530:d *792:o 16.0444
*END

*D_NET *61 0.00023352

*CONN
*I *793:b I *C 52 52 *L 0.0025 *D no02s03
*I *529:o O *C 54 51 *L 0 *D ms00f80

*CAP
1 *529:o 0.00011676
2 *793:b 0.00011676

*RES
1 *793:b *529:o 4.58723
*END

*D_NET *428 0.00028908

*CONN
*I *931:o O *C 16 53 *L 0 *D in01f01
*I *541:d I *C 13 53 *L 0.001 *D ms00f80

*CAP
1 *931:o 0.00014454
2 *541:d 0.00014454

*RES
1 *541:d *931:o 4.86322
*END

*D_NET *218 0.0001591

*CONN
*I *931:a I *C 16 53 *L 0.001 *D in01f01
*I *673:o O *C 17 53 *L 0 *D ao22f02

*CAP
1 *673:o 7.955e-05
2 *931:a 7.955e-05

*RES
1 *931:a *673:o 2.75234
*END

*D_NET *457 0.00046056

*CONN
*I *925:o O *C 23 53 *L 0 *D na02f01
*I *562:d I *C 27 53 *L 0.001 *D ms00f80

*CAP
1 *925:o 0.00020776
2 *457:2 0.00023028
3 *562:d 2.252e-05

*RES
1 *562:d *457:2 0.991264
2 *925:o *457:2 7.95121
*END

*D_NET *220 0.00027288

*CONN
*I *881:o O *C 10 41 *L 0 *D oa12f02
*I *869:a I *C 10 42 *L 0.002 *D ao12f02

*CAP
1 *881:o 8.34e-06
2 *220:2 2.127e-05
3 *220:3 9.722e-05
4 *220:4 9.722e-05
5 *220:5 3.088e-05
6 *869:a 1.795e-05

*RES
1 *220:5 *869:a 0.611631
2 *220:4 *220:5 6.7
3 *220:3 *220:4 1.90852
4 *220:2 *220:3 6.7
5 *881:o *220:2 0.305816
*END

*D_NET *225 0.00029976

*CONN
*I *848:o O *C 10 38 *L 0 *D oa22m02
*I *841:a I *C 10 37 *L 0.0015 *D na02m02

*CAP
1 *848:o 2.586e-05
2 *225:2 0.00012402
3 *225:3 0.00012402
4 *841:a 2.586e-05

*RES
1 *225:3 *841:a 6.7
2 *225:3 *225:2 2.23464
3 *848:o *225:2 6.7
*END

*D_NET *219 0.00017416

*CONN
*I *881:a I *C 10 41 *L 0.002 *D oa12f02
*I *665:o O *C 10 39 *L 0 *D na02s03

*CAP
1 *665:o 2.586e-05
2 *219:2 6.122e-05
3 *219:3 6.122e-05
4 *881:a 2.586e-05

*RES
1 *219:3 *881:a 6.7
2 *219:2 *219:3 1.75579
3 *665:o *219:2 6.7
*END

*D_NET *96 0.00067485

*CONN
*I *912:b I *C 11 30 *L 0.0015 *D no02f02
*I *759:a I *C 10 32 *L 0.004 *D in01s04
*I *567:o O *C 10 26 *L 0 *D ms00f80

*CAP
1 *912:b 2.336e-05
2 *567:o 2.586e-05
3 *96:8 0.00017726
4 *96:6 0.00017726
5 *96:4 3.657e-05
6 *96:2 6.092e-05
7 *96:3 7.388e-05
8 *96:5 7.388e-05
9 *759:a 2.586e-05

*RES
1 *96:8 *567:o 6.7
2 *96:8 *96:6 7.02316
3 *96:5 *759:a 6.7
4 *96:4 *96:6 6.7
5 *96:3 *96:5 2.63368
6 *96:4 *96:2 0.917447
7 *96:2 *96:3 6.7
8 *96:2 *912:b 0.917447
*END

*D_NET *411 0.00023595

*CONN
*I *709:o O *C 10 46 *L 0 *D ao12s04
*I *546:d I *C 11 44 *L 0.001 *D ms00f80

*CAP
1 *709:o 2.586e-05
2 *411:2 6.716e-05
3 *411:3 6.716e-05
4 *411:4 4.435e-05
5 *546:d 3.142e-05

*RES
1 *411:4 *546:d 1.22326
2 *411:3 *411:4 6.7
3 *411:3 *411:2 1.75579
4 *709:o *411:2 6.7
*END

*D_NET *140 0.00029679

*CONN
*I *888:o O *C 12 18 *L 0 *D no03f02
*I *863:a I *C 11 19 *L 0.002 *D ao12f02

*CAP
1 *888:o 2.336e-05
2 *140:2 3.629e-05
3 *140:3 0.00010564
4 *140:4 0.00010564
5 *863:a 2.586e-05

*RES
1 *140:4 *863:a 6.7
2 *140:3 *140:4 2.18243
3 *140:2 *140:3 6.7
4 *140:2 *888:o 0.917447
*END

*D_NET *224 0.00034068

*CONN
*I *934:o O *C 12 39 *L 0 *D na02f01
*I *848:a I *C 11 38 *L 0.002 *D oa22m02

*CAP
1 *934:o 5.628e-05
2 *224:2 6.921e-05
3 *224:3 9.061e-05
4 *224:4 9.061e-05
5 *224:5 2.345e-05
6 *848:a 1.052e-05

*RES
1 *848:a *224:5 0.3136
2 *224:4 *224:5 6.7
3 *224:4 *224:3 2.06528
4 *224:2 *224:3 6.7
5 *224:2 *934:o 4.04518
*END

*D_NET *223 0.00075104

*CONN
*I *881:b I *C 11 40 *L 0.002 *D oa12f02
*I *848:b I *C 11 38 *L 0.002 *D oa22m02
*I *718:o O *C 11 36 *L 0 *D na02s03

*CAP
1 *718:o 1.717e-05
2 *223:2 3.01e-05
3 *223:3 8.362e-05
4 *223:4 8.362e-05
5 *848:b 4.838e-05
6 *223:6 4.712e-05
7 *223:7 3.753e-05
8 *223:8 0.00018882
9 *223:9 0.00018882
10 *881:b 2.586e-05

*RES
1 *223:9 *881:b 6.7
2 *223:8 *223:9 6.43184
3 *223:7 *223:8 6.7
4 *223:7 *223:6 1.01294
5 *848:b *223:6 0.991264
6 *223:4 *848:b 6.7
7 *223:3 *223:4 5.2418
8 *223:2 *223:3 6.7
9 *223:2 *718:o 0.611631
*END

*D_NET *141 0.00017679

*CONN
*I *863:o O *C 11 19 *L 0 *D ao12f02
*I *760:d I *C 11 20 *L 0.004 *D oa22s04

*CAP
1 *863:o 7.78e-06
2 *141:2 2.071e-05
3 *141:3 6.122e-05
4 *141:4 6.122e-05
5 *760:d 2.586e-05

*RES
1 *141:4 *760:d 6.7
2 *141:3 *141:4 1.75579
3 *141:2 *141:3 6.7
4 *141:2 *863:o 0.305816
*END

*D_NET *432 0.00034283

*CONN
*I *892:o O *C 11 54 *L 0 *D in01f02
*I *577:d I *C 12 57 *L 0.001 *D ms00f80

*CAP
1 *892:o 3.678e-05
2 *432:2 4.971e-05
3 *432:3 0.00011524
4 *432:4 0.00011524
5 *577:d 2.586e-05

*RES
1 *432:4 *577:d 6.7
2 *432:3 *432:4 4.38947
3 *432:2 *432:3 6.7
4 *892:o *432:2 1.23903
*END

*D_NET *111 0.00026239

*CONN
*I *908:o O *C 12 41 *L 0 *D no02f02
*I *573:d I *C 13 43 *L 0.001 *D ms00f80

*CAP
1 *908:o 3.114e-05
2 *111:2 4.407e-05
3 *111:3 8.066e-05
4 *111:4 8.066e-05
5 *573:d 2.586e-05

*RES
1 *111:4 *573:d 6.7
2 *111:3 *111:4 2.17576
3 *111:2 *111:3 6.7
4 *908:o *111:2 1.22326
*END

*D_NET *215 0.00058971

*CONN
*I *923:o O *C 15 51 *L 0 *D ao22f01
*I *783:a I *C 13 56 *L 0.002 *D in01m02

*CAP
1 *923:o 5.844e-05
2 *215:2 9.222e-05
3 *215:3 7.041e-05
4 *215:4 4.956e-05
5 *215:5 0.00014661
6 *215:6 0.00014661
7 *783:a 2.586e-05

*RES
1 *215:6 *783:a 6.7
2 *215:5 *215:6 7.08483
3 *215:4 *215:5 6.7
4 *215:4 *215:3 2.52914
5 *215:2 *215:3 1.4869
6 *215:2 *923:o 2.14071
*END

*D_NET *309 0.00092024

*CONN
*I *893:a I *C 13 54 *L 0.002 *D ao22f02
*I *882:o O *C 14 48 *L 0 *D oa22f02

*CAP
1 *882:o 2.448e-05
2 *309:2 3.741e-05
3 *309:3 0.00030874
4 *309:4 0.0003178
5 *309:5 0.00010619
6 *309:6 9.713e-05
7 *309:7 2.071e-05
8 *893:a 7.78e-06

*RES
1 *893:a *309:7 0.305816
2 *309:6 *309:7 6.7
3 *309:5 *309:6 3.21895
4 *309:5 *309:4 0.937831
5 *309:3 *309:4 10.8855
6 *309:2 *309:3 6.7
7 *309:2 *882:o 0.917447
*END

*D_NET *23 0.00017562

*CONN
*I *591:a I *C 14 29 *L 0.024 *D na02m20
*I *483:o O *C 14 31 *L 0 *D in01f08

*CAP
1 *591:a 2.586e-05
2 *23:2 6.195e-05
3 *23:3 6.195e-05
4 *483:o 2.586e-05

*RES
1 *23:3 *483:o 6.7
2 *23:2 *23:3 1.84495
3 *591:a *23:2 6.7
*END

*D_NET *135 0.0005121

*CONN
*I *927:b I *C 14 49 *L 0.001 *D oa22f01
*I *852:o O *C 15 49 *L 0 *D in01s02